# MNW2 package for  MODFLOW-2005, generated by Flopy.
1 130 0
well1 -1
            THIEM -1 0 0 0
               1.0000000E-01 
              -1.0000000E-01   -2.0100000E+01 1 1
              -1.1000000E+00
1  Stress Period 1
well1   -1.0000000E+03
