# MNW2 package for MODFLOW-2005 generated by Flopy 3.3.5
2 130 2
well1 -1
            THIEM -1 0 0 0
               1.0000000E-01 
               7.0000000E+00   -3.3000000E+01 1 1
               6.0000000E+00
1  Stress Period 1
well1   -7.6656001E+03
