# MNW2 package for MODFLOW-2005 generated by Flopy 3.3.5
1 0 0
well1 -1
            skin -1 0 0 0
               1.0000000E-01    1.0000000E-03    5.0000000E+00
              -3.0000000E+01   -5.0000000E+01 1 1
              -3.1000000E+01
1  Stress Period 1
well1   -1.0000000E+03
